$$
$$ Optistruct Input Deck Generated by HyperMesh Version  : 2023.1.0.21
$$ Generated using HyperMesh-Optistruct Template Version : 2023.1.0.21-40550
$$
$$   Template:  optistruct
$$
$$
$$ optistruct
$
SYSSETTING(SKIP10FIELD=CHECK)
$$------------------------------------------------------------------------------$
$$                      Case Control Cards                                      $
$$------------------------------------------------------------------------------$
$
$HMNAME LOADSTEP               1"Caso"       0
$
SUBCASE        1
  LABEL Caso
  SPC =        1
  LOAD =        2
  DISPLACEMENT(OPTI) = ALL
  STRAIN(OPTI) = ALL
  STRESS(OPTI) = YES
  THIN = YES
$$--------------------------------------------------------------
$$ HYPERMESH TAGS 
$$--------------------------------------------------------------
$$BEGIN TAGS
$$END TAGS
$
BEGIN BULK
$$
$$  Stacking Information for Ply-Based Composite Definition
$$

$$
$$  GRID Data
$$
GRID,1,,-0.4362678527832,0.4139289855957,0.0,
GRID,2,,9.5637321472168,0.4139289855957,0.0,
GRID,3,,19.563732147217,0.4139289855957,0.0,
GRID,4,,29.563732147217,0.4139289855957,0.0,
GRID,5,,39.563732147217,0.4139289855957,0.0,
GRID,6,,49.563732147217,0.4139289855957,0.0,
GRID,7,,59.563732147217,0.4139289855957,0.0,
GRID,8,,59.563732147217,-9.5860710144043,0.0,
GRID,9,,59.563732147217,-19.586071014404,0.0,
GRID,10,,59.563732147217,-29.586071014404,0.0,
GRID,11,,59.563732147217,-39.586071014404,0.0,
GRID,12,,59.563732147217,-49.586071014404,0.0,
GRID,13,,59.563732147217,-59.586071014404,0.0,
GRID,14,,59.563732147217,-69.586071014404,0.0,
GRID,15,,59.563732147217,-79.586071014404,0.0,
GRID,16,,59.563732147217,-89.586071014404,0.0,
GRID,17,,59.563732147217,-99.586071014404,0.0,
GRID,18,,49.563732147217,-99.586071014404,0.0,
GRID,19,,39.563732147217,-99.586071014404,0.0,
GRID,20,,29.563732147217,-99.586071014404,0.0,
$ ... 57 like lines cut
$$
$$  CQUAD4 Elements
$$
$HMCOMP ID                     1       1       4
CQUAD4,1,1,39,42,44,38,
CQUAD4,2,1,38,44,34,35,
CQUAD4,3,1,11,45,43,10,
CQUAD4,4,1,45,44,42,43,
CQUAD4,5,1,12,33,45,11,
CQUAD4,6,1,33,34,44,45,
CQUAD4,7,1,4,5,46,41,
CQUAD4,8,1,41,46,47,40,
CQUAD4,9,1,40,47,42,39,
CQUAD4,10,1,8,48,6,7,
CQUAD4,11,1,48,46,5,6,
CQUAD4,12,1,10,43,49,9,
CQUAD4,13,1,9,49,48,8,
CQUAD4,14,1,43,42,47,49,
CQUAD4,15,1,49,47,46,48,
CQUAD4,16,1,30,50,52,29,
CQUAD4,17,1,29,52,37,28,
CQUAD4,18,1,50,51,53,52,
CQUAD4,19,1,52,53,36,37,
CQUAD4,20,1,51,39,38,53,
$ ... 40 like lines cut
$
$$
$$------------------------------------------------------------------------------$
$$    HyperMesh name and color information for generic components               $
$$------------------------------------------------------------------------------$
$HMNAME COMP                   1"auto1"        1 "Pshell" 4 
$HWCOLOR COMP                  1      43
$

$

$
$$
$$  PSHELL Data
$$
$HMNAME PROP                   1"Pshell" 4
$HWCOLOR PROP                  1      59
PSHELL,1,1,1.0,1,,1,,0.0,
$$
$$  MAT1 Data
$$
$HMNAME MAT                    1"Acero" "MAT1"
$HWCOLOR MAT                   1      59
MAT1,1,210000.0,80769.2,0.3,7.85-9,0.0,0.0,0.0,
+,0.0,0.0,0.0,
$$
$$------------------------------------------------------------------------------$
$$ HyperMesh Commands for loadcollectors name and color information $
$$------------------------------------------------------------------------------$
$HMNAME LOADCOL                1"CC"
$HWCOLOR LOADCOL               1       6
$$
$HMNAME LOADCOL                2"Force"
$HWCOLOR LOADCOL               2       3
$$
$$
$$  SPC Data
$$
SPC,1,17,123456,0.0,
SPC,1,18,123456,0.0,
SPC,1,19,123456,0.0,
SPC,1,20,123456,0.0,
SPC,1,21,123456,0.0,
SPC,1,22,123456,0.0,
SPC,1,23,123456,0.0,
$$
$$  FORCE Data
$$
FORCE,2,4,0,1.0,5.638141432666252,0.0,0.0,
ENDDATA
$$
$$------------------------------------------------------------------------------$$
$$        Data Definition for AutoDV                                            $$
$$------------------------------------------------------------------------------$$
$$
$$-----------------------------------------------------------------------------$$
$$        Design Variables Card for Control Perturbations                      $$
$$-----------------------------------------------------------------------------$$
$$
$$------------------------------------------------------------------------------$
$$        Domain Element Definitions                                            $
$$------------------------------------------------------------------------------$
$$
$$------------------------------------------------------------------------------$$
$$            Control Perturbation                                              $$
$$------------------------------------------------------------------------------$$
